@<TRIPOS>MOLECULE
FPP
   49    48     1     0     0
SMALL
resp


@<TRIPOS>ATOM
      1 O3B          3.5400     1.4200     0.0000 o          1 FPP      -0.920000
      2 PB           2.4770     0.3070     0.0790 p5         1 FPP       1.367600
      3 O1B          1.5630     0.3290     1.2970 o          1 FPP      -0.920000
      4 O2B          3.0340    -1.0960    -0.2890 o          1 FPP      -0.920000
      5 O3A          1.3500     0.6070    -1.2720 os         1 FPP      -0.567900
      6 PA           1.1120     1.4990    -2.5820 p5         1 FPP       1.286700
      7 O1A         -0.1880     1.0530    -3.2360 o          1 FPP      -0.875000
      8 O2A          1.4060     2.9770    -2.4370 o          1 FPP      -0.875000
      9 O1           2.3570     0.9890    -3.6590 os         1 FPP      -0.542300
     10 C1           2.2840    -0.3240    -4.1720 c3         1 FPP       0.667900
     11 H1A          1.2310    -0.6480    -4.2050 h1         1 FPP      -0.142000
     12 H1B          2.6490    -0.3020    -5.2180 h1         1 FPP      -0.142000
     13 C2           3.0860    -1.2630    -3.3120 c2         1 FPP      -0.238400
     14 H2A          2.8510    -1.1810    -2.2390 ha         1 FPP       0.185600
     15 C3           4.0860    -2.0980    -3.6510 c2         1 FPP       0.151300
     16 C4           4.6060    -2.3180    -5.0550 c3         1 FPP      -0.861000
     17 H4A          4.4430    -3.3570    -5.3980 hc         1 FPP       0.194000
     18 H4B          5.6940    -2.1490    -5.1200 hc         1 FPP       0.194000
     19 H4C          4.1260    -1.6540    -5.7810 hc         1 FPP       0.194000
     20 C5           4.8050    -2.8590    -2.5490 c3         1 FPP      -0.333900
     21 H5A          4.9800    -3.9080    -2.8580 hc         1 FPP       0.025100
     22 H5B          4.1620    -2.8620    -1.6610 hc         1 FPP       0.025100
     23 C6           6.1650    -2.2450    -2.1290 c3         1 FPP       0.865600
     24 H6A          6.8100    -2.1180    -3.0140 hc         1 FPP      -0.228900
     25 H6B          6.6870    -2.9870    -1.4930 hc         1 FPP      -0.228900
     26 C7           5.9940    -0.9520    -1.3530 c2         1 FPP      -0.400300
     27 H7A          5.0030    -0.8330    -0.8830 ha         1 FPP       0.229400
     28 C8           6.9140     0.0110    -1.1700 c2         1 FPP       0.183400
     29 C9           8.3110    -0.0300    -1.7620 c3         1 FPP      -0.761300
     30 H9A          9.0830    -0.0000    -0.9720 hc         1 FPP       0.163400
     31 H9B          8.4880    -0.9300    -2.3620 hc         1 FPP       0.163400
     32 H9C          8.5050     0.8410    -2.4070 hc         1 FPP       0.163400
     33 C10          6.6020     1.1930    -0.2720 c3         1 FPP      -0.376100
     34 H10A         7.3140     1.1820     0.5810 hc         1 FPP       0.051000
     35 H10B         5.5740     1.0920     0.1160 hc         1 FPP       0.051000
     36 C11          6.6890     2.5990    -0.9210 c3         1 FPP       1.075000
     37 H11A         7.6750     2.7650    -1.3890 hc         1 FPP      -0.289700
     38 H11B         6.6300     3.3250    -0.0900 hc         1 FPP      -0.289700
     39 C12          5.5420     2.8840    -1.8640 c2         1 FPP      -0.715700
     40 H12A         4.5800     2.5070    -1.4870 ha         1 FPP       0.426000
     41 C13          5.5820     3.5410    -3.0330 c2         1 FPP       0.414400
     42 C14          6.8430     4.0930    -3.6680 c3         1 FPP      -0.501200
     43 H14A         6.9750     3.6990    -4.6910 hc         1 FPP       0.092200
     44 H14B         7.7530     3.8610    -3.1030 hc         1 FPP       0.092200
     45 H14C         6.7920     5.1930    -3.7770 hc         1 FPP       0.092200
     46 C15          4.3200     3.7850    -3.8320 c3         1 FPP      -0.501200
     47 H15A         4.3670     3.2760    -4.8100 hc         1 FPP       0.092200
     48 H15B         4.2070     4.8640    -4.0530 hc         1 FPP       0.092200
     49 H15C         3.4140     3.4340    -3.3190 hc         1 FPP       0.092200
@<TRIPOS>BOND
     1     2     1 1
     2     3     2 1
     3     4     2 1
     4     5     2 1
     5     6     5 1
     6     7     6 1
     7     8     6 1
     8     9     6 1
     9    10     9 1
    10    11    10 1
    11    12    10 1
    12    13    10 1
    13    14    13 1
    14    15    13 2
    15    16    15 1
    16    17    16 1
    17    18    16 1
    18    19    16 1
    19    20    15 1
    20    21    20 1
    21    22    20 1
    22    23    20 1
    23    24    23 1
    24    25    23 1
    25    26    23 1
    26    27    26 1
    27    28    26 2
    28    29    28 1
    29    30    29 1
    30    31    29 1
    31    32    29 1
    32    33    28 1
    33    34    33 1
    34    35    33 1
    35    36    33 1
    36    37    36 1
    37    38    36 1
    38    39    36 1
    39    40    39 1
    40    41    39 2
    41    42    41 1
    42    43    42 1
    43    44    42 1
    44    45    42 1
    45    46    41 1
    46    47    46 1
    47    48    46 1
    48    49    46 1
@<TRIPOS>SUBSTRUCTURE
     1 FPP         1 TEMP              0 ****  ****    0 ROOT
